36
Energy 1.895607893361808, Temperature 1.16979
X -2.526790938109233 -2.4710503239946475 
X -2.4960140066152894 -1.465745337605897 
X -2.4896395509791724 -0.4881440379573179 
X -2.47296977563159 0.5287344566629633 
X -2.4744991077899687 1.4949685660511096 
X -2.5348045293351458 2.4460165095713093 
X -1.4710769036221492 -2.4849503973696656 
X -1.48602929850901 -1.578740345558186 
X -1.5074449252692503 -0.5059366334553272 
X -1.487701761035838 0.4552082846312856 
X -1.5296210115901563 1.4398471984020424 
X -1.4875135933854036 2.51278201692495 
X -0.6077412210765594 -2.4938304176827404 
X -0.43932552274347114 -1.454918666107925 
X -0.6028830838830246 -0.5146858332072818 
X -0.46346417713347116 0.4726874627611865 
X -0.5115029093592124 1.4640233858440248 
X -0.5477557696119999 2.4457607212518635 
X 0.4582833015165386 -2.562915004834007 
X 0.5270583244485292 -1.5618728650366358 
X 0.47560359833045984 -0.47956110818399705 
X 0.45129068084410423 0.49287229592205345 
X 0.5237436574864289 1.5107265939743078 
X 0.46074742117537376 2.549230104991047 
X 1.5620275600818618 -2.5095509583109608 
X 1.5010073175468714 -1.4556595964075494 
X 1.563755153769971 -0.5567205714452024 
X 1.465235796348249 0.45881715040439597 
X 1.4473055121179719 1.4733170535446913 
X 1.4951209716289469 2.4715071273699323 
X 2.474307432103773 -2.467752510405461 
X 2.4932406478322595 -1.520340875681919 
X 2.5294725484961837 -0.5356274762715294 
X 2.484495268478462 0.49426532727442296 
X 2.4528784757911755 1.4663072681067213 
X 2.4579025553572986 2.459401645524371 
36
Energy -0.5281125146334544, Temperature 1.29394
X -3.1857265233701604 -2.5313971735621617 
X -2.544237428771981 -1.6254491814070098 
X -3.372914003005735 -0.5674155271517693 
X -2.686359901121505 0.5545458048185816 
X -2.897735710858188 1.7966760897389862 
X -2.9934614667691433 2.921797244529715 
X -1.784287912841871 -3.0871638416538207 
X -1.5037329456274635 -2.0077125134931206 
X -1.9284925850126002 -0.7071532921408145 
X -1.5433624325676758 0.36192753572209835 
X -1.828377054103941 1.498253538287742 
X -1.8169690854309584 2.5911796162707024 
X -0.7312950540265475 -2.7894756021475677 
X -0.28606757662176024 -1.6378677496919212 
X -0.8997598080861788 -0.6837333813701143 
X -0.4110561256917784 0.3694080688729996 
X -0.5979213507487338 1.4478281772923287 
X -0.7014377124722139 2.618428704514182 
X 0.3011649323119848 -3.226830127915144 
X 0.7152963455603215 -2.0969099558843 
X 0.5247301093807394 -0.7389577328902202 
X 0.5488950515317831 0.8770830800347635 
X 0.41499617912911657 2.049081050888528 
X 0.3322945403581645 3.1479927727507135 
X 1.5341701218080526 -2.866311961125671 
X 1.7743733138128106 -1.8125235406246765 
X 1.8508005728892514 -0.6929263260795689 
X 1.5308981476385102 0.31600014276992533 
X 1.5043229103902631 1.4204592651981676 
X 1.442412484522907 2.6201696142914495 
X 2.9327484897957743 -2.873554120268289 
X 2.9255455578228453 -1.7183333287875322 
X 3.316571659909694 -0.612841365778857 
X 2.698411517991815 0.35409720954940177 
X 2.689118190408153 1.5350564347526618 
X 2.5784682904909753 2.6530564777147023 
36
Energy 0.08148004083022142, Temperature 1.29625
X -3.855471834729714 -2.7368318378058545 
X -2.8097144388199036 -2.071050947127686 
X -4.109423407274337 -0.7810778935066134 
X -2.889919591966029 0.5826644575745344 
X -3.270886711535481 2.2982875561035505 
X -3.3355223900809436 3.4291360230019405 
X -2.0497855270584755 -3.5420464329225823 
X -1.6873383624441884 -2.4333372497317063 
X -2.6298698711308512 -0.5778359752477784 
X -1.6780752356278632 0.3963064146630199 
X -2.275957449718587 1.459058188624159 
X -2.313314500023924 2.633047013725205 
X -0.9230462636336119 -3.250723972970752 
X -0.237903062571574 -1.9517508393427814 
X -1.127270899931714 -0.8220613567958113 
X -0.20734312143264544 0.21725593045376845 
X -0.6617851141907326 1.6541603778679477 
X -0.7453949764355601 2.911876056892491 
X 0.17751551039601818 -3.7232628000104455 
X 0.8724242652200339 -2.82543111603875 
X 0.6436616275381764 -1.1210082527893053 
X 0.4711317029869723 1.574190593702291 
X 0.28519091759692367 2.6841921465936713 
X 0.21180916237084535 3.8005292063092577 
X 1.8961391557727223 -3.4326011394226184 
X 2.333748557409699 -2.225624896066756 
X 2.394236826896874 -0.9674561021956832 
X 1.6813165943224695 0.22824928799623145 
X 1.8201592963980686 1.4410280330887186 
X 1.4248634601120762 2.9406673247804576 
X 3.091995323918059 -3.1268965828251547 
X 3.439545622653813 -2.020060748148372 
X 3.9683056519527775 -0.8066888447759959 
X 3.0170700935927766 0.13929499429694334 
X 2.886562997111141 1.7612930322581493 
X 2.5985983538630584 2.881549358124765 
36
Energy 0.2809099909388133, Temperature 1.29906
X -4.47707424516813 -2.902679992095498 
X -3.0574254767071567 -2.5913615223015336 
X -4.78056383289028 -1.0296420431654523 
X -2.9720106651239657 0.6428261260631545 
X -3.90405474441936 2.6616838771844122 
X -3.5479991160437407 3.776720243953826 
X -2.2611554776831957 -3.889767293742093 
X -1.944615076124451 -2.8623844910409857 
X -3.414493637467702 -0.590402961336489 
X -1.9474470160753496 0.25767975854961944 
X -2.748027582188602 1.70806601255635 
X -2.532524320810652 2.8026802725913904 
X -1.0997835499584805 -3.7011224623713224 
X -0.16341922291587518 -2.3474659947166927 
X -1.3520457808120858 -0.8078716244458072 
X -0.13561136658333742 0.05249695524443489 
X -0.660477626924146 2.071839526304746 
X -0.9042645618703528 3.1257201137846486 
X 0.015084319762806109 -4.159506886169388 
X 1.0797131227408772 -3.5775852559201375 
X 0.666617774959873 -1.6464277844822033 
X 0.4833543929305345 2.253879065351675 
X 0.23600359012267771 3.308453825826591 
X -0.00043831364113067954 4.398647509895728 
X 2.323400072099117 -3.817354511475667 
X 2.6573450267866843 -2.4368467804817984 
X 3.1592892766392047 -1.354514542884842 
X 2.0903127657164604 0.1900167052158955 
X 1.956662493921172 1.4267734040917304 
X 1.4170925072716918 3.1432481311460037 
X 3.451378049608739 -3.558952437528291 
X 3.9022469834081956 -2.2274816942549984 
X 4.370035718012631 -1.1210932874570896 
X 3.188196217389981 -0.228806117676426 
X 3.09246406279527 2.0451929442692975 
X 2.4664235659215996 2.976225466269057 
36
Energy 0.39753372206794946, Temperature 1.29740
X -4.989372473887536 -3.0108367658737762 
X -3.2911446779118214 -3.269864342851718 
X -5.356906530818654 -1.2703665596267335 
X -3.1390098467349947 0.7612143623241102 
X -4.2975837621200546 3.0365888476594876 
X -3.638727355401768 3.928368047176039 
X -2.4109518702318686 -4.298137013808185 
X -2.1242531117655012 -3.185915474027213 
X -4.263837926370616 -0.7047989934279175 
X -2.2635471458538454 0.1131153114751549 
X -3.278232482598543 2.005729098824038 
X -2.9733824471612977 3.1160546481076308 
X -1.3213202114156675 -4.115543554234341 
X -0.1857255399385635 -2.917993091121828 
X -1.4676414470453136 -0.735411287605487 
X -0.18489998663837046 -0.18919025689860725 
X -0.5311084265857543 2.4210161096447425 
X -0.9946242536264724 3.553961883974525 
X -0.23804510467261308 -4.4589079035608385 
X 1.3902510925709266 -4.375922901131539 
X 0.7331108318725168 -2.144298916612363 
X 0.4212366620663488 2.7523971964992078 
X 0.06899757479084848 3.880135007932914 
X -0.27893190690917063 5.023638182988129 
X 2.6167612085951784 -4.016620710012796 
X 3.0945905747102853 -2.5839994426902604 
X 3.5343083110561415 -1.5943622598495537 
X 2.6136175285430414 0.337908697058219 
X 2.2841428154500636 1.4064579542481352 
X 1.3200683174420236 3.4336226386104216 
X 3.927064346097513 -3.9175998220280057 
X 4.436445132551321 -2.8148926862168153 
X 4.711927743845395 -1.532177783627532 
X 3.3873435428316974 -0.5776166897018487 
X 3.130197454680408 2.158837444625057 
X 2.3791299904664682 3.0330901588066213 
36
Energy 0.3374910759772849, Temperature 1.29157
X -5.2089379840861065 -2.9909680421142038 
X -3.410597097269369 -3.9787046266125246 
X 5.434709577194747 -1.6362243825836185 
X -3.396828011517142 1.071186102500287 
X -4.4169148761578905 3.2637482993684674 
X -3.88151292723973 4.351807792609344 
X -2.6178960601682384 -4.701586527812668 
X -2.2814285149095492 -3.6082895174627807 
X -4.614879500989867 -0.4172230783361615 
X -2.5786750234758786 0.03802922325822277 
X -3.901233940588983 2.1793916971435765 
X -3.381895215183278 3.206473527515871 
X -1.522898063077046 -4.3851916012187875 
X -0.14147159688982308 -3.5387338180409023 
X -1.4073195483349985 -0.6896878402671739 
X -0.3861334544161332 -0.4988519683017841 
X -0.8869397684730721 2.7907660228838775 
X -0.9768683419132923 3.8954853323765803 
X -0.46104926716156663 -4.51401492512797 
X 1.8120949831290103 -5.117495102587111 
X 0.66575142727075 -2.75380864660963 
X 0.46617741133987844 3.3174047886362006 
X 0.0787286819347589 4.336817313386011 
X -0.5416255457219524 5.353227940950978 
X 2.977510738081304 -4.121237926049719 
X 3.6692614711269966 -3.152455741112976 
X 3.4449531769067385 -1.8447551861001752 
X 3.20223208527354 0.43783389211811846 
X 2.522565076388165 1.3652070093466318 
X 1.373122950460118 3.9964214213964246 
X 4.077164995542143 -4.195423793668269 
X 4.646365176002677 -3.351709346923533 
X 4.661690611429292 -2.400982601240168 
X 3.548984766971129 -0.6036151245640826 
X 3.2014125850771418 2.3703232366222933 
X 2.223562950302358 3.0365209360090297 
36
Energy 0.4060580835637497, Temperature 1.30183
X -5.000281141037962 -2.767500890382679 
X -3.621976442616611 -4.426850006476478 
X 5.329246795885333 -1.9607110583763103 
X -3.6681658529191865 1.4634594328217108 
X -4.707091347535742 3.500439550793094 
X -4.173120894570785 4.45219000016705 
X -2.6835057082838127 -5.379758836232314 
X -2.657431728334132 -4.009564488152999 
X -4.697513426452383 0.055119047229654314 
X -2.837283317955058 -0.022744321836886756 
X -4.5319448336245465 2.311967863001848 
X -3.4711578516105823 3.4364682259907657 
X -1.7724645516926474 -4.689341515681761 
X -0.2822340437141084 -3.8211313533571443 
X -1.7555220767984767 -0.5662085647980378 
X -0.36261135246442466 -0.7745133481358099 
X -1.1186159105064089 3.205231069177448 
X -0.7490376974737393 4.222739364800965 
X -0.6299394366866768 -4.80900601949896 
X 2.291950558319113 5.1546810302573824 
X 1.0432627998878692 -2.9790552458326305 
X 0.4072232323423938 3.7491430137758543 
X 0.2663740880937202 4.835410088739762 
X -1.0393981176773468 5.238863680100016 
X 2.833151860477974 -4.183776640416642 
X 3.854267360562437 -3.541255123595463 
X 3.3019445895103865 -2.051932409736976 
X 3.7337743761992264 0.5897056998836094 
X 2.799863176656101 1.3748135291100125 
X 1.3228140164294402 4.50923897414234 
X 4.1122475773541005 -5.121015524244283 
X 5.25557524929088 -4.413082323712409 
X 4.427653057430798 -2.6477698584242266 
X 3.7222095296718343 -0.8534827925758552 
X 3.124323684076734 2.6401849357454528 
X 2.0705742306631847 3.0129151173236566 
36
Energy 0.4048835457454507, Temperature 1.30193
X -4.738897081596962 -2.8424945761164646 
X -3.90391367442614 -5.142681643904465 
X 5.073918351548129 -1.9453712607062532 
X -4.083348447513926 1.9476057942019893 
X -4.897110557657772 3.573129543676399 
X -4.356692944110162 4.605343260767975 
X -2.888294103742166 5.219696244284921 
X -2.9632135324194353 -4.45116882863518 
X -4.733196753554348 0.5770734581024063 
X -3.120945907638595 -0.06072394705506759 
X -4.995054263738164 2.4664938018921285 
X -3.798610503892661 3.639226285864562 
X -1.9137224556312098 -4.8255324053473 
X -0.46842180499735747 -3.726492419786611 
X -2.0418920475549553 -0.42518086949912176 
X -0.45709497603275095 -1.0370388738159844 
X -1.3963843492551185 3.4345069834073962 
X -0.5354926119770913 4.391402197357408 
X -0.7646379241724558 -5.182608068056049 
X 2.6665529651876616 4.346743188773728 
X 1.6490582505804448 -3.031852887810083 
X 0.7688229805749043 4.057167507877104 
X 0.20409215831024607 5.421587636458935 
X -1.7923656520925468 4.9496461133243805 
X 2.6625236343015555 -4.278664231180818 
X 3.8568592809956543 -4.128651231207448 
X 3.3516639697488957 -2.173583552073312 
X 4.120181440893011 0.759372952473508 
X 3.292200985833537 1.4936058575422746 
X 1.3699203498475845 4.9105703588042235 
X 4.316480378631882 5.094820304491941 
X -5.212606602247785 -5.489581827373549 
X 4.250980046411634 -2.7791633792169197 
X 3.8581535719421773 -1.2313847124661614 
X 2.9768966163429926 2.6988876228871788 
X 1.872921677288226 3.04279321440116 
36
Energy 0.3990353156980201, Temperature 1.30123
X -4.596146234470798 -2.848498384575236 
X -4.268030472405085 5.4348496905174155 
X 4.951533727021312 -2.1391803668449274 
X -4.369549478840128 2.276879086043803 
X -5.1262034256817515 3.8457448012999973 
X -4.012312044133289 4.335306799424994 
X -3.047339011207981 5.110918023520254 
X -3.4091396141716843 -4.865210386018457 
X -4.69294774033793 1.2210349781242646 
X -3.495953142733627 -0.04219512633582122 
X 5.409098469693204 2.6200466100007387 
X -3.7780352497848306 3.024946615794472 
X -2.1561658558508943 -4.9317972560458765 
X -0.663102504676417 -3.6770180039748723 
X -2.2311881989156968 -0.3306737405796117 
X -0.6078924856973721 -1.280910592648551 
X -1.5070529880239376 3.707474831252779 
X -0.4522171117362209 4.624389444749182 
X -1.2755596775093774 5.480389446889816 
X 2.853733132780901 3.5464308012926287 
X 2.344243355257376 -3.1417577033752973 
X 1.2552075992512093 4.168288210633858 
X 0.23441457810437766 -5.381873159343619 
X -2.2104746571826026 4.545818702694196 
X 2.6484707248901804 -4.27149815030506 
X 3.72121105993422 -4.606931279514964 
X 3.104651342247807 -2.342911464830847 
X 4.504970674375905 0.9190946937899581 
X 3.7283702339937457 1.844248891181623 
X 1.5606211427241534 5.482804809940246 
X 4.616400446888674 4.372757079026227 
X 5.478343216038354 5.1126723477361935 
X 4.260939017753782 -3.0759091688529834 
X 3.9945910631633987 -1.4659660975584146 
X 2.7811354207097363 2.5188326750291097 
X 1.7660942098363026 3.220374925299212 
36
Energy 0.4923081324305566, Temperature 1.28608
X -4.546330248070083 -2.825980984702353 
X -4.916016719775318 5.257627472320191 
X 5.166240717775394 -2.6864376739747207 
X -5.0017844024624285 2.9132538628382507 
X -5.002520101405653 4.1169734137703005 
X -3.73467749677639 3.873968994778073 
X -3.6312686006133 5.0658285726133885 
X -3.952492204003334 -4.713851879779444 
X -4.819421673427255 0.9664022553529379 
X -3.6876737693881783 -0.035235901901139975 
X 4.897533231909649 2.7240551440891716 
X -3.083556825616867 2.5480652270186113 
X -2.6036867108070076 -5.102738601046351 
X -0.8708243202422898 -3.6826652891594955 
X -2.6178794578001887 -0.19865662710361243 
X -0.7835637373769115 -1.5148842508780924 
X -1.210201858301211 3.7032254235403004 
X -0.142823940468461 4.487711849688152 
X -1.6751514456598458 5.282078356240168 
X 2.990145342002368 3.4194133356599203 
X 2.8647440611044463 -3.337101290514449 
X 1.7171124964272881 4.575234358168028 
X 0.2534555613485382 -5.428948524001279 
X -2.3013939299102537 4.422798259893239 
X 2.5897400166762305 -4.605286156874228 
X 3.588483322771518 -5.015082899165792 
X 3.232364441864563 -2.3863504700531464 
X 4.833130796892347 1.243645972320285 
X 4.139737547948779 2.2041507190158596 
X 1.5698558220449197 -5.063118868954503 
X 4.656022961634905 3.7826275500743787 
X 5.077505692361268 4.85865572504635 
X 4.080834249432109 -3.1719338204816894 
X 3.8694927287779763 -1.4192869290834775 
X 2.5614745704817348 1.6552078300338653 
X 1.9004043778561546 3.241416842689375 
